
  NIST    07011508203D 1   1.00000  -232.24864
Copyright by the U.S. Sec. Commerce on behalf of U.S.A. All rights reserved.
 12 12  0  0  0  0  0  0  0  0999 V2000
    3.2917    3.3940    0.2349 C    0  0  0  0  0  0  0  0  0  0  0  0
    1.9023    3.5389    0.2241 C    0  0  0  0  0  0  0  0  0  0  0  0
    3.8618    2.1207    0.1613 C    0  0  0  0  0  0  0  0  0  0  0  0
    1.0830    2.4105    0.1396 C    0  0  0  0  0  0  0  0  0  0  0  0
    3.0425    0.9922    0.0768 C    0  0  0  0  0  0  0  0  0  0  0  0
    1.6531    1.1372    0.0660 C    0  0  0  0  0  0  0  0  0  0  0  0
    3.9292    4.2719    0.3006 H    0  0  0  0  0  0  0  0  0  0  0  0
    1.4588    4.5296    0.2813 H    0  0  0  0  0  0  0  0  0  0  0  0
    4.9429    2.0079    0.1699 H    0  0  0  0  0  0  0  0  0  0  0  0
    0.0019    2.5232    0.1310 H    0  0  0  0  0  0  0  0  0  0  0  0
    3.4861    0.0016    0.0196 H    0  0  0  0  0  0  0  0  0  0  0  0
    1.0156    0.2592    0.0002 H    0  0  0  0  0  0  0  0  0  0  0  0
  1  3  1  0  0  0  0
  1  7  1  0  0  0  0
  2  1  2  0  0  0  0
  2  8  1  0  0  0  0
  3  5  2  0  0  0  0
  3  9  1  0  0  0  0
  4  2  1  0  0  0  0
  4 10  1  0  0  0  0
  5  6  1  0  0  0  0
  5 11  1  0  0  0  0
  6  4  2  0  0  0  0
  6 12  1  0  0  0  0
M  END
> <COPYRIGHT>
Collection (C) 2016 copyright by the U.S. Secretary of Commerce on behalf of the United States of America. All rights reserved.

> <DATE>
2015-07-01

> <CAS.NUMBER>
71-43-2

> <METHOD>
B3LYP/6-31G*

> <DIPOLE.MOMENT>
0.0001 debye

> <ELECTRONIC.ENERGY>
-232.248642980 hartree

> <IR.FREQUENCIES>
"Frequency (cm-1)"   "Intensity (km/mol)"
415.3437  0.0000
415.6972  0.0000
621.6949  0.0000
621.7743  0.0000
694.4071  77.6201
717.9416  0.0000
864.2290  0.0000
864.6893  0.0000
968.7957  0.0001
969.2005  0.0000
1010.6212  0.0000
1019.4002  0.0000
1019.7383  0.0000
1068.0616  3.2715
1068.5304  3.2619
1185.1384  0.0000
1207.1852  0.0000
1207.4310  0.0000
1354.3555  0.0000
1386.7554  0.0000
1530.3679  6.5340
1530.8213  6.5352
1654.3267  0.0000
1654.4943  0.0000
3175.6792  0.0021
3185.1806  0.0004
3185.4300  0.0002
3200.9772  51.8434
3201.1507  51.8454
3211.6971  0.0001

> <ROTATIONAL.CONSTANTS>
5.68403 GHz
5.68350 GHz
2.84188 GHz

> <SOFTWARE>
Gaussian 09, Revision D.01

> <CONTRIBUTOR>
Ashley Zhang

$$$$
